$DATA1 SOURCE='PrimeSim HSPICE' VERSION='T-2022.06-SP1-2 win64' PARAM_COUNT=0
.TITLE '**** ece 222 course project ****'
 zout_1k          zout_5k          zout_10k         zout_15k        
 zout_20k         temper           alter#          
    3.9288           3.9348           3.9386           3.9386       
    3.9406          27.0000        1               
