$DATA1 SOURCE='PrimeSim HSPICE' VERSION='T-2022.06-SP1-2 win64' PARAM_COUNT=0
.TITLE '**** ece 222 course project ****'
 zin_1k           zin_5k           zin_10k          zin_15k         
 zin_20k          temper           alter#          
  1.001e+05        1.001e+05        1.001e+05        1.001e+05      
  1.001e+05         27.0000        1               
