$DATA1 SOURCE='PrimeSim HSPICE' VERSION='T-2022.06-SP1-2 win64' PARAM_COUNT=0
.TITLE '**** ece 222 course project ****'
 vout_peak        vout_pp          pout_rms         idd_avg         
 iss_avg          idd_peak         iss_peak         temper          
 alter#          
    3.5949           6.9542           0.1889        -4.167e-02      
  3.800e-02         -0.1176           0.1103          27.0000       
1               
