$DATA1 SOURCE='PrimeSim HSPICE' VERSION='T-2022.06-SP1-2 win64' PARAM_COUNT=0
.TITLE '**** ece 222 course project ****'
 gain_mid         gain_db          bw_f1            bw_f2           
 bw_3db           temper           alter#          
    0.            -560.0000           failed           failed       
    failed          27.0000        1               
